Version 4
SHEET 1 1096 680
WIRE 1088 -48 -192 -48
WIRE 1040 -32 -176 -32
WIRE 1040 0 1040 -32
WIRE -176 16 -176 -32
WIRE -144 16 -176 16
WIRE -128 16 -144 16
WIRE 128 16 80 16
WIRE 176 16 128 16
WIRE 448 16 400 16
WIRE 496 16 448 16
WIRE 768 16 720 16
WIRE 816 16 768 16
WIRE 1040 16 1040 0
WIRE -192 48 -192 -48
WIRE -144 48 -192 48
WIRE 128 48 80 48
WIRE 176 48 128 48
WIRE 448 48 400 48
WIRE 496 48 448 48
WIRE 768 48 720 48
WIRE 816 48 768 48
WIRE 1056 48 1040 48
WIRE 1088 48 1088 -48
WIRE 1088 48 1056 48
WIRE -144 80 -192 80
WIRE 128 80 80 80
WIRE 176 80 128 80
WIRE 448 80 400 80
WIRE 496 80 448 80
WIRE 768 80 720 80
WIRE 816 80 768 80
WIRE 1056 80 1040 80
WIRE 1088 80 1056 80
WIRE -144 112 -176 112
WIRE 128 112 80 112
WIRE 176 112 128 112
WIRE 448 112 400 112
WIRE 496 112 448 112
WIRE 768 112 720 112
WIRE 816 112 768 112
WIRE 1040 128 1040 112
WIRE -176 160 -176 112
WIRE 1040 160 1040 128
WIRE 1040 160 -176 160
WIRE -192 176 -192 80
WIRE 1088 176 1088 80
WIRE 1088 176 -192 176
FLAG 128 16 d1
FLAG 128 48 d2
FLAG 128 80 d3
FLAG 128 112 d4
FLAG 448 16 d5
FLAG 448 48 d6
FLAG 448 80 d7
FLAG 448 112 d8
FLAG 768 16 d9
FLAG 768 48 d10
FLAG 768 80 d11
FLAG 768 112 d12
FLAG 1040 0 d13
FLAG 1056 48 d14
FLAG 1056 80 d15
FLAG 1040 128 d16
SYMBOL 4bitlfsr_final 16 64 R0
WINDOW 0 0 0 Left 0
SYMATTR InstName 4BITLFSR1
SYMBOL 4bitlfsr_final 336 64 R0
WINDOW 0 0 0 Left 0
SYMATTR InstName 4BITLFSR2
SYMBOL 4bitlfsr_final 656 64 R0
WINDOW 0 0 0 Left 0
SYMATTR InstName 4BITLFSR3
SYMBOL 4bitlfsr_final 976 64 R0
WINDOW 0 0 0 Left 0
SYMATTR InstName 4BITLFSR4
TEXT -192 184 Left 2 !.tran 1000m
